Distribution/8500Node/DSSfiles/IEEE8500u_Power_elem_kVA.txt

CIRCUIT ELEMENT POWER FLOW

(Power Flow into element from indicated Bus)

Power Delivery Elements

  Bus                Phase     kW     +j   kvar         kVA         PF

ELEMENT = "Vsource.SOURCE"
SOURCEBUS                1         0.0 +j      0.0        0.0       1.0000
SOURCEBUS                2         0.0 +j      0.0        0.0       1.0000
SOURCEBUS                3         0.0 +j      0.0        0.0       1.0000
   TERMINAL TOTAL ............     0.0 +j      0.0        0.0       1.0000
SOURCEBUS                0         0.0 +j      0.0        0.0       1.0000
SOURCEBUS                0         0.0 +j      0.0        0.0       1.0000
SOURCEBUS                0         0.0 +j      0.0        0.0       1.0000
   TERMINAL TOTAL ............     0.0 +j      0.0        0.0       1.0000

ELEMENT = "Line.HVMV_SUB_CONNECTOR"
_HVMV_SUB_LSB            1         0.0 +j      0.0        0.0       1.0000
_HVMV_SUB_LSB            2         0.0 +j      0.0        0.0       1.0000
_HVMV_SUB_LSB            3         0.0 +j      0.0        0.0       1.0000
   TERMINAL TOTAL ............     0.0 +j      0.0        0.0       1.0000
HVMV_SUB_48332           1         0.0 +j      0.0        0.0       1.0000
HVMV_SUB_48332           2         0.0 +j      0.0        0.0       1.0000
HVMV_SUB_48332           3         0.0 +j      0.0        0.0       1.0000
   TERMINAL TOTAL ............     0.0 +j      0.0        0.0       1.0000

ELEMENT = "Line.LN5502549-1"
M1009763                 2         0.0 +j      0.0        0.0       1.0000
   TERMINAL TOTAL ............     0.0 +j      0.0        0.0       1.0000
L2673322                 2         0.0 +j      0.0        0.0       1.0000
   TERMINAL TOTAL ............     0.0 +j      0.0        0.0       1.0000

ELEMENT = "Line.LN6259988-1"
M1069148                 3         0.0 +j      0.0        0.0       1.0000
   TERMINAL TOTAL ............     0.0 +j      0.0        0.0       1.0000
L2673309                 3         0.0 +j      0.0        0.0       1.0000
   TERMINAL TOTAL ............     0.0 +j      0.0        0.0       1.0000

ELEMENT = "Line.LN6077796-1"
M1069588                 2         0.0 +j      0.0        0.0       1.0000
   TERMINAL TOTAL ............     0.0 +j      0.0        0.0       1.0000
L2804270                 2         0.0 +j      0.0        0.0       1.0000
   TERMINAL TOTAL ............     0.0 +j      0.0        0.0       1.0000

ELEMENT = "Line.LN5835135-2"
M3036164                 2         0.0 +j      0.0        0.0       1.0000
   TERMINAL TOTAL ............     0.0 +j      0.0        0.0       1.0000
L2935553                 2         0.0 +j      0.0        0.0       1.0000
   TERMINAL TOTAL ............     0.0 +j      0.0        0.0       1.0000

ELEMENT = "Line.LN5896826-1"
M1209749                 2         0.0 +j      0.0        0.0       1.0000
   TERMINAL TOTAL ............     0.0 +j      0.0        0.0       1.0000
L2748840                 2         0.0 +j      0.0        0.0       1.0000
   TERMINAL TOTAL ............     0.0 +j      0.0        0.0       1.0000

ELEMENT = "Line.LN5714038-1"
M1108264                 2         0.0 +j      0.0        0.0       1.0000
   TERMINAL TOTAL ............     0.0 +j      0.0        0.0       1.0000
M1108263                 2         0.0 +j      0.0        0.0       1.0000
   TERMINAL TOTAL ............     0.0 +j      0.0        0.0       1.0000

ELEMENT = "Line.LN5653457-1"
L3085398                 1         0.0 +j      0.0        0.0       1.0000
L3085398                 2         0.0 +j      0.0        0.0       1.0000
L3085398                 3         0.0 +j      0.0        0.0       1.0000
   TERMINAL TOTAL ............     0.0 +j      0.0        0.0       1.0000
M1026891                 1         0.0 +j      0.0        0.0       1.0000
M1026891                 2         0.0 +j      0.0        0.0       1.0000
M1026891                 3         0.0 +j      0.0        0.0       1.0000
   TERMINAL TOTAL ............     0.0 +j      0.0        0.0       1.0000

ELEMENT = "Line.LN5835173-1"
L3216367                 1         0.0 +j      0.0        0.0       1.0000
L3216367                 2         0.0 +j      0.0        0.0       1.0000
L3216367                 3         0.0 +j      0.0        0.0       1.0000
   TERMINAL TOTAL ............     0.0 +j      0.0        0.0       1.0000
M1069468                 1         0.0 +j      0.0        0.0       1.0000
M1069468                 2         0.0 +j      0.0        0.0       1.0000
M1069468                 3         0.0 +j      0.0        0.0       1.0000
   TERMINAL TOTAL ............     0.0 +j      0.0        0.0       1.0000

ELEMENT = "Line.LN6321415-1"
M1142800                 2         0.0 +j      0.0        0.0       1.0000
   TERMINAL TOTAL ............     0.0 +j      0.0        0.0       1.0000
M1142799                 2         0.0 +j      0.0        0.0       1.0000
   TERMINAL TOTAL ............     0.0 +j      0.0        0.0       1.0000

ELEMENT = "Line.LN5565092-1"
M1047592                 3         0.0 +j      0.0        0.0       1.0000
   TERMINAL TOTAL ............     0.0 +j      0.0        0.0       1.0000
P827512                  3         0.0 +j      0.0        0.0       1.0000
   TERMINAL TOTAL ............     0.0 +j      0.0        0.0       1.0000

ELEMENT = "Line.LN6073648-1"
M1047339                 1         0.0 +j      0.0        0.0       1.0000
   TERMINAL TOTAL ............     0.0 +j      0.0        0.0       1.0000
P895104                  1         0.0 +j      0.0        0.0       1.0000
   TERMINAL TOTAL ............     0.0 +j      0.0        0.0       1.0000

ELEMENT = "Line.LN5774457-1"
M1026915                 1         0.0 +j      0.0        0.0       1.0000
M1026915                 2         0.0 +j      0.0        0.0       1.0000
M1026915                 3         0.0 +j      0.0        0.0       1.0000
   TERMINAL TOTAL ............     0.0 +j      0.0        0.0       1.0000
M1026920                 1         0.0 +j      0.0        0.0       1.0000
M1026920                 2         0.0 +j      0.0        0.0       1.0000
M1026920                 3         0.0 +j      0.0        0.0       1.0000
   TERMINAL TOTAL ............     0.0 +j      0.0        0.0       1.0000

ELEMENT = "Line.LN5534966-3"
N1138596                 1         0.0 +j      0.0        0.0       1.0000
   TERMINAL TOTAL ............     0.0 +j      0.0        0.0       1.0000
L3254207                 1         0.0 +j      0.0        0.0       1.0000
   TERMINAL TOTAL ............     0.0 +j      0.0        0.0       1.0000

ELEMENT = "Line.LN5859996-1"
M1069464                 2         0.0 +j      0.0        0.0       1.0000
   TERMINAL TOTAL ............     0.0 +j      0.0        0.0       1.0000
P873787                  2         0.0 +j      0.0        0.0       1.0000
   TERMINAL TOTAL ............     0.0 +j      0.0        0.0       1.0000

ELEMENT = "Line.LN6138610-2"
N1144665                 1         0.0 +j      0.0        0.0       1.0000
N1144665                 2         0.0 +j      0.0        0.0       1.0000
N1144665                 3         0.0 +j      0.0        0.0       1.0000
   TERMINAL TOTAL ............     0.0 +j      0.0        0.0       1.0000
M1047515                 1         0.0 +j      0.0        0.0       1.0000
M1047515                 2         0.0 +j      0.0        0.0       1.0000
M1047515                 3         0.0 +j      0.0        0.0       1.0000
   TERMINAL TOTAL ............     0.0 +j      0.0        0.0       1.0000

ELEMENT = "Line.LN6258435-3"
N1137002                 1         0.0 +j      0.0        0.0       1.0000
   TERMINAL TOTAL ............     0.0 +j      0.0        0.0       1.0000
M1047707                 1         0.0 +j      0.0        0.0       1.0000
   TERMINAL TOTAL ............     0.0 +j      0.0        0.0       1.0000

ELEMENT = "Line.LN5804790-1"
L2729406                 3         0.0 +j      0.0        0.0       1.0000
   TERMINAL TOTAL ............     0.0 +j      0.0        0.0       1.0000
L2897768                 3         0.0 +j      0.0        0.0       1.0000
   TERMINAL TOTAL ............     0.0 +j      0.0        0.0       1.0000

ELEMENT = "Line.LN6900591-14"
L3649301                 1         0.0 +j      0.0        0.0       1.0000
   TERMINAL TOTAL ............     0.0 +j      0.0        0.0       1.0000
L3649302                 1         0.0 +j      0.0        0.0       1.0000
   TERMINAL TOTAL ............     0.0 +j      0.0        0.0       1.0000

ELEMENT = "Line.LN6409873-1"
L2970842                 2         0.0 +j      0.0        0.0       1.0000
   TERMINAL TOTAL ............     0.0 +j      0.0        0.0       1.0000
M1089113                 2         0.0 +j      0.0        0.0       1.0000
   TERMINAL TOTAL ............     0.0 +j      0.0        0.0       1.0000

ELEMENT = "Line.LN6014135-1"
M1047312                 1         0.0 +j      0.0        0.0       1.0000
   TERMINAL TOTAL ............     0.0 +j      0.0        0.0       1.0000
P893163                  1         0.0 +j      0.0        0.0       1.0000
   TERMINAL TOTAL ............     0.0 +j      0.0        0.0       1.0000

ELEMENT = "Line.LN6077784-1"
L2822871                 1         0.0 +j      0.0        0.0       1.0000
L2822871                 2         0.0 +j      0.0        0.0       1.0000
L2822871                 3         0.0 +j      0.0        0.0       1.0000
   TERMINAL TOTAL ............     0.0 +j      0.0        0.0       1.0000
M1026872                 1         0.0 +j      0.0        0.0       1.0000
M1026872                 2         0.0 +j      0.0        0.0       1.0000
M1026872                 3         0.0 +j      0.0        0.0       1.0000
   TERMINAL TOTAL ............     0.0 +j      0.0        0.0       1.0000

ELEMENT = "Line.LN5744338-1"
M1026312                 2         0.0 +j      0.0        0.0       1.0000
   TERMINAL TOTAL ............     0.0 +j      0.0        0.0       1.0000
L2973163                 2         0.0 +j      0.0        0.0       1.0000
   TERMINAL TOTAL ............     0.0 +j      0.0        0.0       1.0000

ELEMENT = "Line.LN6991381-4"
L3728038                 1         0.0 +j      0.0        0.0       1.0000
   TERMINAL TOTAL ............     0.0 +j      0.0        0.0       1.0000
L3728039                 1         0.0 +j      0.0        0.0       1.0000
   TERMINAL TOTAL ............     0.0 +j      0.0        0.0       1.0000

ELEMENT = "Line.LN5774480-1"
M1069567                 2         0.0 +j      0.0        0.0       1.0000
   TERMINAL TOTAL ............     0.0 +j      0.0        0.0       1.0000
M1069582                 2         0.0 +j      0.0        0.0       1.0000
   TERMINAL TOTAL ............     0.0 +j      0.0        0.0       1.0000

ELEMENT = "Line.LN5986938-3"
N1140830                 1         0.0 +j      0.0        0.0       1.0000
   TERMINAL TOTAL ............     0.0 +j      0.0        0.0       1.0000
L3216351                 1         0.0 +j      0.0        0.0       1.0000
   TERMINAL TOTAL ............     0.0 +j      0.0        0.0       1.0000

ELEMENT = "Line.LN5894230-1"
L2952007                 3         0.0 +j      0.0        0.0       1.0000
   TERMINAL TOTAL ............     0.0 +j      0.0        0.0       1.0000
L2861158                 3         0.0 +j      0.0        0.0       1.0000
   TERMINAL TOTAL ............     0.0 +j      0.0        0.0       1.0000

ELEMENT = "Line.LN5683858-3"
N1140827                 1         0.0 +j      0.0        0.0       1.0000
N1140827                 2         0.0 +j      0.0        0.0       1.0000
N1140827                 3         0.0 +j      0.0        0.0       1.0000
   TERMINAL TOTAL ............     0.0 +j      0.0        0.0       1.0000
M1026726                 1         0.0 +j      0.0        0.0       1.0000
M1026726                 2         0.0 +j      0.0        0.0       1.0000
M1026726                 3         0.0 +j      0.0        0.0       1.0000
   TERMINAL TOTAL ............     0.0 +j      0.0        0.0       1.0000

ELEMENT = "Line.LN5920279-5"
L2730106                 1         0.0 +j      0.0        0.0       1.0000
L2730106                 2         0.0 +j      0.0        0.0       1.0000
L2730106                 3         0.0 +j      0.0        0.0       1.0000
   TERMINAL TOTAL ............     0.0 +j      0.0        0.0       1.0000
N1142099                 1         0.0 +j      0.0        0.0       1.0000
N1142099                 2         0.0 +j      0.0        0.0       1.0000
N1142099                 3         0.0 +j      0.0        0.0       1.0000
   TERMINAL TOTAL ............     0.0 +j      0.0        0.0       1.0000

ELEMENT = "Line.LN6439600-1"
M1026658                 1         0.0 +j      0.0        0.0       1.0000
   TERMINAL TOTAL ............     0.0 +j      0.0        0.0       1.0000
L3172805                 1         0.0 +j      0.0        0.0       1.0000
   TERMINAL TOTAL ............     0.0 +j      0.0        0.0       1.0000

ELEMENT = "Line.LN5589097-1"
P895112                  1         0.0 +j      0.0        0.0       1.0000
   TERMINAL TOTAL ............     0.0 +j      0.0        0.0       1.0000
L3048962                 1         0.0 +j      0.0        0.0       1.0000
   TERMINAL TOTAL ............     0.0 +j      0.0        0.0       1.0000

ELEMENT = "Line.LN5651975-1"
L2991914                 1         0.0 +j      0.0        0.0       1.0000
L2991914                 2         0.0 +j      0.0        0.0       1.0000
L2991914                 3         0.0 +j      0.0        0.0       1.0000
   TERMINAL TOTAL ............     0.0 +j      0.0        0.0       1.0000
M1047503                 1         0.0 +j      0.0        0.0       1.0000
M1047503                 2         0.0 +j      0.0        0.0       1.0000
M1047503                 3         0.0 +j      0.0        0.0       1.0000
   TERMINAL TOTAL ............     0.0 +j      0.0        0.0       1.0000

ELEMENT = "Line.LN5865236-1"
M1047751                 1         0.0 +j      0.0        0.0       1.0000
   TERMINAL TOTAL ............     0.0 +j      0.0        0.0       1.0000
L2973154                 1         0.0 +j      0.0        0.0       1.0000
   TERMINAL TOTAL ............     0.0 +j      0.0        0.0       1.0000

ELEMENT = "Line.LN5593232-1"
L3010565                 3         0.0 +j      0.0        0.0       1.0000
   TERMINAL TOTAL ............     0.0 +j      0.0        0.0       1.0000
L2897775                 3         0.0 +j      0.0        0.0       1.0000
   TERMINAL TOTAL ............     0.0 +j      0.0        0.0       1.0000

ELEMENT = "Line.LN5740283-1"
M1125955                 3         0.0 +j      0.0        0.0       1.0000
   TERMINAL TOTAL ............     0.0 +j      0.0        0.0       1.0000
M1125957                 3         0.0 +j      0.0        0.0       1.0000
   TERMINAL TOTAL ............     0.0 +j      0.0        0.0       1.0000

ELEMENT = "Line.LN6106559-1"
M1069640                 2         0.0 +j      0.0        0.0       1.0000
   TERMINAL TOTAL ............     0.0 +j      0.0        0.0       1.0000
L2804269                 2         0.0 +j      0.0        0.0       1.0000
   TERMINAL TOTAL ............     0.0 +j      0.0        0.0       1.0000

ELEMENT = "Line.LN5714056-3"
M1026702                 1         0.0 +j      0.0        0.0       1.0000
M1026702                 2         0.0 +j      0.0        0.0       1.0000
M1026702                 3         0.0 +j      0.0        0.0       1.0000
   TERMINAL TOTAL ............     0.0 +j      0.0        0.0       1.0000
N1139551                 1         0.0 +j      0.0        0.0       1.0000
N1139551                 2         0.0 +j      0.0        0.0       1.0000
N1139551                 3         0.0 +j      0.0        0.0       1.0000
   TERMINAL TOTAL ............     0.0 +j      0.0        0.0       1.0000

ELEMENT = "Line.LN5985355-3"
N1136355                 2         0.0 +j      0.0        0.0       1.0000
   TERMINAL TOTAL ............     0.0 +j      0.0        0.0       1.0000
L2783231                 2         0.0 +j      0.0        0.0       1.0000
   TERMINAL TOTAL ............     0.0 +j      0.0        0.0       1.0000

ELEMENT = "Line.LN5531956-1"
L2748143                 1         0.0 +j      0.0        0.0       1.0000
   TERMINAL TOTAL ............     0.0 +j      0.0        0.0       1.0000
L3251854                 1         0.0 +j      0.0        0.0       1.0000
   TERMINAL TOTAL ............     0.0 +j      0.0        0.0       1.0000

ELEMENT = "Line.LN5650048-1"
M1069610                 2         0.0 +j      0.0        0.0       1.0000
   TERMINAL TOTAL ............     0.0 +j      0.0        0.0       1.0000
M1069600                 2         0.0 +j      0.0        0.0       1.0000
   TERMINAL TOTAL ............     0.0 +j      0.0        0.0       1.0000

ELEMENT = "Line.LN6290203-1"
M1069424                 1         0.0 +j      0.0        0.0       1.0000
M1069424                 2         0.0 +j      0.0        0.0       1.0000
M1069424                 3         0.0 +j      0.0        0.0       1.0000
   TERMINAL TOTAL ............     0.0 +j      0.0        0.0       1.0000
L2935549                 1         0.0 +j      0.0        0.0       1.0000
L2935549                 2         0.0 +j      0.0        0.0       1.0000
L2935549                 3         0.0 +j      0.0        0.0       1.0000
   TERMINAL TOTAL ............     0.0 +j      0.0        0.0       1.0000

ELEMENT = "Line.LN6134414-1"
P895089                  3         0.0 +j      0.0        0.0       1.0000
   TERMINAL TOTAL ............     0.0 +j      0.0        0.0       1.0000
L3235242                 3         0.0 +j      0.0        0.0       1.0000
   TERMINAL TOTAL ............     0.0 +j      0.0        0.0       1.0000

ELEMENT = "Line.LN6259998-2"
M1026795                 3         0.0 +j      0.0        0.0       1.0000
   TERMINAL TOTAL ............     0.0 +j      0.0        0.0       1.0000
N1140522                 3         0.0 +j      0.0        0.0       1.0000
   TERMINAL TOTAL ............     0.0 +j      0.0        0.0       1.0000

ELEMENT = "Line.LN6078767-1"
L3030199                 1         0.0 +j      0.0        0.0       1.0000
L3030199                 2         0.0 +j      0.0        0.0       1.0000
L3030199                 3         0.0 +j      0.0        0.0       1.0000
   TERMINAL TOTAL ............     0.0 +j      0.0        0.0       1.0000
M1125934                 1         0.0 +j      0.0        0.0       1.0000
M1125934                 2         0.0 +j      0.0        0.0       1.0000
M1125934                 3         0.0 +j      0.0        0.0       1.0000
   TERMINAL TOTAL ............     0.0 +j      0.0        0.0       1.0000

ELEMENT = "Line.LN6017300-1"
M1069189                 3         0.0 +j      0.0        0.0       1.0000
   TERMINAL TOTAL ............     0.0 +j      0.0        0.0       1.0000
L2860487                 3         0.0 +j      0.0        0.0       1.0000
   TERMINAL TOTAL ............     0.0 +j      0.0        0.0       1.0000

ELEMENT = "Line.LN8979257-2"
221-312488               1         0.0 +j      0.0        0.0       1.0000
221-312488               2         0.0 +j      0.0        0.0       1.0000
221-312488               3         0.0 +j      0.0        0.0       1.0000
   TERMINAL TOTAL ............     0.0 +j      0.0        0.0       1.0000
M1089183                 1         0.0 +j      0.0        0.0       1.0000
M1089183                 2         0.0 +j      0.0        0.0       1.0000
M1089183                 3         0.0 +j      0.0        0.0       1.0000
   TERMINAL TOTAL ............     0.0 +j      0.0        0.0       1.0000

ELEMENT = "Line.LN81048109-1"
M1108464                 2         0.0 +j      0.0        0.0       1.0000
   TERMINAL TOTAL ............     0.0 +j      0.0        0.0       1.0000
L3102286                 2         0.0 +j      0.0        0.0       1.0000
   TERMINAL TOTAL ............     0.0 +j      0.0        0.0       1.0000

ELEMENT = "Line.293471"
F739845                  1         0.0 +j      0.0        0.0       1.0000
F739845                  2         0.0 +j      0.0        0.0       1.0000
F739845                  3         0.0 +j      0.0        0.0       1.0000
   TERMINAL TOTAL ............     0.0 +j      0.0        0.0       1.0000
293471                   1         0.0 +j      0.0        0.0       1.0000
293471                   2         0.0 +j      0.0        0.0       1.0000
293471                   3         0.0 +j      0.0        0.0       1.0000
   TERMINAL TOTAL ............     0.0 +j      0.0        0.0       1.0000

ELEMENT = "Line.LN5534965-2"
P827499                  1         0.0 +j      0.0        0.0       1.0000
   TERMINAL TOTAL ............     0.0 +j      0.0        0.0       1.0000
N1139254                 1         0.0 +j      0.0        0.0       1.0000
   TERMINAL TOTAL ............     0.0 +j      0.0        0.0       1.0000

ELEMENT = "Line.LN5655683-1"
M1026657                 1         0.0 +j      0.0        0.0       1.0000
   TERMINAL TOTAL ............     0.0 +j      0.0        0.0       1.0000
M1026656                 1         0.0 +j      0.0        0.0       1.0000
   TERMINAL TOTAL ............     0.0 +j      0.0        0.0       1.0000

ELEMENT = "Line.LN5686247-1"
M1108299                 2         0.0 +j      0.0        0.0       1.0000
   TERMINAL TOTAL ............     0.0 +j      0.0        0.0       1.0000
M1108300                 2         0.0 +j      0.0        0.0       1.0000
   TERMINAL TOTAL ............     0.0 +j      0.0        0.0       1.0000

ELEMENT = "Line.LN6048642-1"
L3198355                 2         0.0 +j      0.0        0.0       1.0000
   TERMINAL TOTAL ............     0.0 +j      0.0        0.0       1.0000
L2805037                 2         0.0 +j      0.0        0.0       1.0000
   TERMINAL TOTAL ............     0.0 +j      0.0        0.0       1.0000

ELEMENT = "Line.LN5928544-3"
N1137994                 3         0.0 +j      0.0        0.0       1.0000
   TERMINAL TOTAL ............     0.0 +j      0.0        0.0       1.0000
M1069484                 3         0.0 +j      0.0        0.0       1.0000
   TERMINAL TOTAL ............     0.0 +j      0.0        0.0       1.0000

ELEMENT = "Line.LN6108172-1"
L2860504                 1         0.0 +j      0.0        0.0       1.0000
   TERMINAL TOTAL ............     0.0 +j      0.0        0.0       1.0000
L2860493                 1         0.0 +j      0.0        0.0       1.0000
   TERMINAL TOTAL ............     0.0 +j      0.0        0.0       1.0000

ELEMENT = "Line.LN5532754-1"
M1026783                 1         0.0 +j      0.0        0.0       1.0000
M1026783                 2         0.0 +j      0.0        0.0       1.0000
M1026783                 3         0.0 +j      0.0        0.0       1.0000
   TERMINAL TOTAL ............     0.0 +j      0.0        0.0       1.0000
M1026780                 1         0.0 +j      0.0        0.0       1.0000
M1026780                 2         0.0 +j      0.0        0.0       1.0000
M1026780                 3         0.0 +j      0.0        0.0       1.0000
   TERMINAL TOTAL ............     0.0 +j      0.0        0.0       1.0000

ELEMENT = "Line.LN5591834-1"
P895111                  3         0.0 +j      0.0        0.0       1.0000
   TERMINAL TOTAL ............     0.0 +j      0.0        0.0       1.0000
L2895496                 3         0.0 +j      0.0        0.0       1.0000
   TERMINAL TOTAL ............     0.0 +j      0.0        0.0       1.0000

ELEMENT = "Line.LN6347196-2"
N1140819                 1         0.0 +j      0.0        0.0       1.0000
N1140819                 2         0.0 +j      0.0        0.0       1.0000
N1140819                 3         0.0 +j      0.0        0.0       1.0000
   TERMINAL TOTAL ............     0.0 +j      0.0        0.0       1.0000
M1026700                 1         0.0 +j      0.0        0.0       1.0000
M1026700                 2         0.0 +j      0.0        0.0       1.0000
M1026700                 3         0.0 +j      0.0        0.0       1.0000
   TERMINAL TOTAL ............     0.0 +j      0.0        0.0       1.0000

ELEMENT = "Line.LN5532741-1"
M1089173                 3         0.0 +j      0.0        0.0       1.0000
   TERMINAL TOTAL ............     0.0 +j      0.0        0.0       1.0000
L2935551                 3         0.0 +j      0.0        0.0       1.0000
   TERMINAL TOTAL ............     0.0 +j      0.0        0.0       1.0000

ELEMENT = "Line.LN5804803-1"
M1026344                 1         0.0 +j      0.0        0.0       1.0000
   TERMINAL TOTAL ............     0.0 +j      0.0        0.0       1.0000
M1026364                 1         0.0 +j      0.0        0.0       1.0000
   TERMINAL TOTAL ............     0.0 +j      0.0        0.0       1.0000

ELEMENT = "Line.LN6169248-1"
L2879070                 1         0.0 +j      0.0        0.0       1.0000
L2879070                 2         0.0 +j      0.0        0.0       1.0000
L2879070                 3         0.0 +j      0.0        0.0       1.0000
   TERMINAL TOTAL ............     0.0 +j      0.0        0.0       1.0000
L3216345                 1         0.0 +j      0.0        0.0       1.0000
L3216345                 2         0.0 +j      0.0        0.0       1.0000
L3216345                 3         0.0 +j      0.0        0.0       1.0000
   TERMINAL TOTAL ............     0.0 +j      0.0        0.0       1.0000

ELEMENT = "Line.LN5532786-2"
M1069428                 2         0.0 +j      0.0        0.0       1.0000
   TERMINAL TOTAL ............     0.0 +j      0.0        0.0       1.0000
N1139257                 2         0.0 +j      0.0        0.0       1.0000
   TERMINAL TOTAL ............     0.0 +j      0.0        0.0       1.0000

ELEMENT = "Line.LN5744339-1"
L2991919                 1         0.0 +j      0.0        0.0       1.0000
   TERMINAL TOTAL ............     0.0 +j      0.0        0.0       1.0000
M1026361                 1         0.0 +j      0.0        0.0       1.0000
   TERMINAL TOTAL ............     0.0 +j      0.0        0.0       1.0000

ELEMENT = "Line.LN5531255-3"
N1147857                 1         0.0 +j      0.0        0.0       1.0000
   TERMINAL TOTAL ............     0.0 +j      0.0        0.0       1.0000
M1009742                 1         0.0 +j      0.0        0.0       1.0000
   TERMINAL TOTAL ............     0.0 +j      0.0        0.0       1.0000

ELEMENT = "Line.LN5926308-2"
Q14412                   1         0.0 +j      0.0        0.0       1.0000
Q14412                   2         0.0 +j      0.0        0.0       1.0000
Q14412                   3         0.0 +j      0.0        0.0       1.0000
   TERMINAL TOTAL ............     0.0 +j      0.0        0.0       1.0000
M1047325                 1         0.0 +j      0.0        0.0       1.0000
M1047325                 2         0.0 +j      0.0        0.0       1.0000
M1047325                 3         0.0 +j      0.0        0.0       1.0000
   TERMINAL TOTAL ............     0.0 +j      0.0        0.0       1.0000

ELEMENT = "Line.LN5683856-3"
N1139263                 1         0.0 +j      0.0        0.0       1.0000
   TERMINAL TOTAL ............     0.0 +j      0.0        0.0       1.0000
L3048227                 1         0.0 +j      0.0        0.0       1.0000
   TERMINAL TOTAL ............     0.0 +j      0.0        0.0       1.0000

ELEMENT = "Line.LN6171502-1"
P827506                  1         0.0 +j      0.0        0.0       1.0000
   TERMINAL TOTAL ............     0.0 +j      0.0        0.0       1.0000
M1069469                 1         0.0 +j      0.0        0.0       1.0000
   TERMINAL TOTAL ............     0.0 +j      0.0        0.0       1.0000

ELEMENT = "Line.LN5593228-1"
M1027019                 2         0.0 +j      0.0        0.0       1.0000
   TERMINAL TOTAL ............     0.0 +j      0.0        0.0       1.0000
L2785522                 2         0.0 +j      0.0        0.0       1.0000
   TERMINAL TOTAL ............     0.0 +j      0.0        0.0       1.0000

ELEMENT = "Line.LN6380800-1"
L3216338                 2         0.0 +j      0.0        0.0       1.0000
   TERMINAL TOTAL ............     0.0 +j      0.0        0.0       1.0000
L2973146                 2         0.0 +j      0.0        0.0       1.0000
   TERMINAL TOTAL ............     0.0 +j      0.0        0.0       1.0000

ELEMENT = "Line.LN6199525-2"
M3037452                 1         0.0 +j      0.0        0.0       1.0000
   TERMINAL TOTAL ............     0.0 +j      0.0        0.0       1.0000
L2973164                 1         0.0 +j      0.0        0.0       1.0000
   TERMINAL TOTAL ............     0.0 +j      0.0        0.0       1.0000

ELEMENT = "Line.LN5772710-2"
L3120376                 1         0.0 +j      0.0        0.0       1.0000
   TERMINAL TOTAL ............     0.0 +j      0.0        0.0       1.0000
M1026925                 1         0.0 +j      0.0        0.0       1.0000
   TERMINAL TOTAL ............     0.0 +j      0.0        0.0       1.0000

ELEMENT = "Line.LN8961760-1"
M1047612                 3         0.0 +j      0.0        0.0       1.0000
   TERMINAL TOTAL ............     0.0 +j      0.0        0.0       1.0000
P828360                  3         0.0 +j      0.0        0.0       1.0000
   TERMINAL TOTAL ............     0.0 +j      0.0        0.0       1.0000

ELEMENT = "Line.LN6047556-1"
M1089195                 3         0.0 +j      0.0        0.0       1.0000
   TERMINAL TOTAL ............     0.0 +j      0.0        0.0       1.0000
L3141393                 3         0.0 +j      0.0        0.0       1.0000
   TERMINAL TOTAL ............     0.0 +j      0.0        0.0       1.0000

ELEMENT = "Line.LN6138603-1"
M1026946                 2         0.0 +j      0.0        0.0       1.0000
   TERMINAL TOTAL ............     0.0 +j      0.0        0.0       1.0000
M1026940                 2         0.0 +j      0.0        0.0       1.0000
   TERMINAL TOTAL ............     0.0 +j      0.0        0.0       1.0000

ELEMENT = "Line.LN6108139-1"
M1047471                 2         0.0 +j      0.0        0.0       1.0000
   TERMINAL TOTAL ............     0.0 +j      0.0        0.0       1.0000
L3216349                 2         0.0 +j      0.0        0.0       1.0000
   TERMINAL TOTAL ............     0.0 +j      0.0        0.0       1.0000

ELEMENT = "Line.LN6388581-2"
M1047401                 1         0.0 +j      0.0        0.0       1.0000
   TERMINAL TOTAL ............     0.0 +j      0.0        0.0       1.0000
L2748132                 1         0.0 +j      0.0        0.0       1.0000
   TERMINAL TOTAL ............     0.0 +j      0.0        0.0       1.0000

ELEMENT = "Line.LN5774460-1"
L3122820                 1         0.0 +j      0.0        0.0       1.0000
   TERMINAL TOTAL ............     0.0 +j      0.0        0.0       1.0000
L3141398                 1         0.0 +j      0.0        0.0       1.0000
   TERMINAL TOTAL ............     0.0 +j      0.0        0.0       1.0000

ELEMENT = "Line.LN5624387-1"
M1108360                 3         0.0 +j      0.0        0.0       1.0000
   TERMINAL TOTAL ............     0.0 +j      0.0        0.0       1.0000
L3048968                 3         0.0 +j      0.0        0.0       1.0000
   TERMINAL TOTAL ............     0.0 +j      0.0        0.0       1.0000

ELEMENT = "Line.LN6137087-1"
L2801950                 3         0.0 +j      0.0        0.0       1.0000
   TERMINAL TOTAL ............     0.0 +j      0.0        0.0       1.0000
M1069224                 3         0.0 +j      0.0        0.0       1.0000
   TERMINAL TOTAL ............     0.0 +j      0.0        0.0       1.0000

ELEMENT = "Line.LN6077809-1"
L2766746                 3         0.0 +j      0.0        0.0       1.0000
   TERMINAL TOTAL ............     0.0 +j      0.0        0.0       1.0000
M1027073                 3         0.0 +j      0.0        0.0       1.0000
   TERMINAL TOTAL ............     0.0 +j      0.0        0.0       1.0000

ELEMENT = "Line.LN6440079-1"
L2895496                 3         0.0 +j      0.0        0.0       1.0000
   TERMINAL TOTAL ............     0.0 +j      0.0        0.0       1.0000
M1142873                 3         0.0 +j      0.0        0.0       1.0000
   TERMINAL TOTAL ............     0.0 +j      0.0        0.0       1.0000

ELEMENT = "Line.LN5804794-1"
M1069181                 1         0.0 +j      0.0        0.0       1.0000
   TERMINAL TOTAL ............     0.0 +j      0.0        0.0       1.0000
L2973151                 1         0.0 +j      0.0        0.0       1.0000
   TERMINAL TOTAL ............     0.0 +j      0.0        0.0       1.0000

ELEMENT = "Line.LN5654484-1"
L3179682                 3         0.0 +j      0.0        0.0       1.0000
   TERMINAL TOTAL ............     0.0 +j      0.0        0.0       1.0000
L2786274                 3         0.0 +j      0.0        0.0       1.0000
   TERMINAL TOTAL ............     0.0 +j      0.0        0.0       1.0000

ELEMENT = "Line.LN5774465-1"
L3066816                 1         0.0 +j      0.0        0.0       1.0000
   TERMINAL TOTAL ............     0.0 +j      0.0        0.0       1.0000
M1026667                 1         0.0 +j      0.0        0.0       1.0000
   TERMINAL TOTAL ............     0.0 +j      0.0        0.0       1.0000

ELEMENT = "Line.LN5473349-1"
M1108529                 1         0.0 +j      0.0        0.0       1.0000
M1108529                 2         0.0 +j      0.0        0.0       1.0000
M1108529                 3         0.0 +j      0.0        0.0       1.0000
   TERMINAL TOTAL ............     0.0 +j      0.0        0.0       1.0000
M1108532                 1         0.0 +j      0.0        0.0       1.0000
M1108532                 2         0.0 +j      0.0        0.0       1.0000
M1108532                 3         0.0 +j      0.0        0.0       1.0000
   TERMINAL TOTAL ............     0.0 +j      0.0        0.0       1.0000

ELEMENT = "Line.LN6169253-1"
L2766723                 1         0.0 +j      0.0        0.0       1.0000
   TERMINAL TOTAL ............     0.0 +j      0.0        0.0       1.0000
L3122822                 1         0.0 +j      0.0        0.0       1.0000
   TERMINAL TOTAL ............     0.0 +j      0.0        0.0       1.0000

ELEMENT = "Line.LN6350536-1"
L2673312                 1         0.0 +j      0.0        0.0       1.0000
   TERMINAL TOTAL ............     0.0 +j      0.0        0.0       1.0000
L3235247                 1         0.0 +j      0.0        0.0       1.0000
   TERMINAL TOTAL ............     0.0 +j      0.0        0.0       1.0000

ELEMENT = "Line.LN6048523-1"
M1166391                 3         0.0 +j      0.0        0.0       1.0000
   TERMINAL TOTAL ............     0.0 +j      0.0        0.0       1.0000
L3254873                 3         0.0 +j      0.0        0.0       1.0000
   TERMINAL TOTAL ............     0.0 +j      0.0        0.0       1.0000

ELEMENT = "Line.LN5594152-1"
L2861157                 3         0.0 +j      0.0        0.0       1.0000
   TERMINAL TOTAL ............     0.0 +j      0.0        0.0       1.0000
P901951                  3         0.0 +j      0.0        0.0       1.0000
   TERMINAL TOTAL ............     0.0 +j      0.0        0.0       1.0000

ELEMENT = "Line.LN5865248-1"
M1047346                 1         0.0 +j      0.0        0.0       1.0000
M1047346                 2         0.0 +j      0.0        0.0       1.0000
M1047346                 3         0.0 +j      0.0        0.0       1.0000
   TERMINAL TOTAL ............     0.0 +j      0.0        0.0       1.0000
M1047345                 1         0.0 +j      0.0        0.0       1.0000
M1047345                 2         0.0 +j      0.0        0.0       1.0000
M1047345                 3         0.0 +j      0.0        0.0       1.0000
   TERMINAL TOTAL ............     0.0 +j      0.0        0.0       1.0000

ELEMENT = "Line.LN6046143-1"
L2989596                 2         0.0 +j      0.0        0.0       1.0000
   TERMINAL TOTAL ............     0.0 +j      0.0        0.0       1.0000
L2822873                 2         0.0 +j      0.0        0.0       1.0000
   TERMINAL TOTAL ............     0.0 +j      0.0        0.0       1.0000

ELEMENT = "Line.LN5803287-1"
M1108328                 3         0.0 +j      0.0        0.0       1.0000
   TERMINAL TOTAL ............     0.0 +j      0.0        0.0       1.0000
L2875754                 3         0.0 +j      0.0        0.0       1.0000
   TERMINAL TOTAL ............     0.0 +j      0.0        0.0       1.0000

ELEMENT = "Line.LN5589094-1"
L2786204                 3         0.0 +j      0.0        0.0       1.0000
   TERMINAL TOTAL ............     0.0 +j      0.0        0.0       1.0000
M1209819                 3         0.0 +j      0.0        0.0       1.0000
   TERMINAL TOTAL ............     0.0 +j      0.0        0.0       1.0000

ELEMENT = "Line.LN5954983-1"
P901972                  1         0.0 +j      0.0        0.0       1.0000
   TERMINAL TOTAL ............     0.0 +j      0.0        0.0       1.0000
M1009726                 1         0.0 +j      0.0        0.0       1.0000
   TERMINAL TOTAL ............     0.0 +j      0.0        0.0       1.0000

ELEMENT = "Line.LN5924696-2"
M1047702                 1         0.0 +j      0.0        0.0       1.0000
   TERMINAL TOTAL ............     0.0 +j      0.0        0.0       1.0000
N1137001                 1         0.0 +j      0.0        0.0       1.0000
   TERMINAL TOTAL ............     0.0 +j      0.0        0.0       1.0000

ELEMENT = "Line.LN6506311-4"
L2767340                 1         0.0 +j      0.0        0.0       1.0000
L2767340                 2         0.0 +j      0.0        0.0       1.0000
L2767340                 3         0.0 +j      0.0        0.0       1.0000
   TERMINAL TOTAL ............     0.0 +j      0.0        0.0       1.0000
M3037449                 1         0.0 +j      0.0        0.0       1.0000
M3037449                 2         0.0 +j      0.0        0.0       1.0000
M3037449                 3         0.0 +j      0.0        0.0       1.0000
   TERMINAL TOTAL ............     0.0 +j      0.0        0.0       1.0000

ELEMENT = "Line.LN5653493-1"
M1047457                 2         0.0 +j      0.0        0.0       1.0000
   TERMINAL TOTAL ............     0.0 +j      0.0        0.0       1.0000
L2710546                 2         0.0 +j      0.0        0.0       1.0000
   TERMINAL TOTAL ............     0.0 +j      0.0        0.0       1.0000

ELEMENT = "Line.LN5684836-1"
L2674027                 1         0.0 +j      0.0        0.0       1.0000
L2674027                 2         0.0 +j      0.0        0.0       1.0000
L2674027                 3         0.0 +j      0.0        0.0       1.0000
   TERMINAL TOTAL ............     0.0 +j      0.0        0.0       1.0000
L2692633                 1         0.0 +j      0.0        0.0       1.0000
L2692633                 2         0.0 +j      0.0        0.0       1.0000
L2692633                 3         0.0 +j      0.0        0.0       1.0000
   TERMINAL TOTAL ............     0.0 +j      0.0        0.0       1.0000

ELEMENT = "Line.LN5715016-3"
N1142108                 1         0.0 +j      0.0        0.0       1.0000
   TERMINAL TOTAL ............     0.0 +j      0.0        0.0       1.0000
L2674051                 1         0.0 +j      0.0        0.0       1.0000
   TERMINAL TOTAL ............     0.0 +j      0.0        0.0       1.0000

ELEMENT = "Line.LN6138614-1"
M1069135                 1         0.0 +j      0.0        0.0       1.0000
M1069135                 2         0.0 +j      0.0        0.0       1.0000
M1069135                 3         0.0 +j      0.0        0.0       1.0000
   TERMINAL TOTAL ............     0.0 +j      0.0        0.0       1.0000
R18242                   1         0.0 +j      0.0        0.0       1.0000
R18242                   2         0.0 +j      0.0        0.0       1.0000
R18242                   3         0.0 +j      0.0        0.0       1.0000
   TERMINAL TOTAL ............     0.0 +j      0.0        0.0       1.0000

ELEMENT = "Line.LN6077781-2"
M1047534                 1         0.0 +j      0.0        0.0       1.0000
M1047534                 2         0.0 +j      0.0        0.0       1.0000
M1047534                 3         0.0 +j      0.0        0.0       1.0000
   TERMINAL TOTAL ............     0.0 +j      0.0        0.0       1.0000
N1136663                 1         0.0 +j      0.0        0.0       1.0000
N1136663                 2         0.0 +j      0.0        0.0       1.0000
N1136663                 3         0.0 +j      0.0        0.0       1.0000
   TERMINAL TOTAL ............     0.0 +j      0.0        0.0       1.0000

ELEMENT = "Line.LN5675121-1"
M1108508                 3         0.0 +j      0.0        0.0       1.0000
   TERMINAL TOTAL ............     0.0 +j      0.0        0.0       1.0000
L3097861                 3         0.0 +j      0.0        0.0       1.0000
   TERMINAL TOTAL ............     0.0 +j      0.0        0.0       1.0000

ELEMENT = "Line.LN5773046-1"
M1069560                 2         0.0 +j      0.0        0.0       1.0000
   TERMINAL TOTAL ............     0.0 +j      0.0        0.0       1.0000
M1069567                 2         0.0 +j      0.0        0.0       1.0000
   TERMINAL TOTAL ............     0.0 +j      0.0        0.0       1.0000

ELEMENT = "Line.LN6380809-2"
L2973153                 1         0.0 +j      0.0        0.0       1.0000
L2973153                 2         0.0 +j      0.0        0.0       1.0000
L2973153                 3         0.0 +j      0.0        0.0       1.0000
   TERMINAL TOTAL ............     0.0 +j      0.0        0.0       1.0000
N1136998                 1         0.0 +j      0.0        0.0       1.0000
N1136998                 2         0.0 +j      0.0        0.0       1.0000
N1136998                 3         0.0 +j      0.0        0.0       1.0000
   TERMINAL TOTAL ............     0.0 +j      0.0        0.0       1.0000

ELEMENT = "Line.LN6018326-1"
L2898515                 3         0.0 +j      0.0        0.0       1.0000
   TERMINAL TOTAL ............     0.0 +j      0.0        0.0       1.0000
M1166387                 3         0.0 +j      0.0        0.0       1.0000
   TERMINAL TOTAL ............     0.0 +j      0.0        0.0       1.0000

ELEMENT = "Line.LN5472356-1"
M1047442                 2         0.0 +j      0.0        0.0       1.0000
   TERMINAL TOTAL ............     0.0 +j      0.0        0.0       1.0000
L3235250                 2         0.0 +j      0.0        0.0       1.0000
   TERMINAL TOTAL ............     0.0 +j      0.0        0.0       1.0000

ELEMENT = "Line.LN6139641-1"
M1142871                 1         0.0 +j      0.0        0.0       1.0000
M1142871                 2         0.0 +j      0.0        0.0       1.0000
M1142871                 3         0.0 +j      0.0        0.0       1.0000
   TERMINAL TOTAL ............     0.0 +j      0.0        0.0       1.0000
M1142874                 1         0.0 +j      0.0        0.0       1.0000
M1142874                 2         0.0 +j      0.0        0.0       1.0000
M1142874                 3         0.0 +j      0.0        0.0       1.0000
   TERMINAL TOTAL ............     0.0 +j      0.0        0.0       1.0000

ELEMENT = "Line.LN6018341-1"
L2955081                 1         0.0 +j      0.0        0.0       1.0000
L2955081                 2         0.0 +j      0.0        0.0       1.0000
L2955081                 3         0.0 +j      0.0        0.0       1.0000
   TERMINAL TOTAL ............     0.0 +j      0.0        0.0       1.0000
M1108315                 1         0.0 +j      0.0        0.0       1.0000
M1108315                 2         0.0 +j      0.0        0.0       1.0000
M1108315                 3         0.0 +j      0.0        0.0       1.0000
   TERMINAL TOTAL ............     0.0 +j      0.0        0.0       1.0000

ELEMENT = "Line.LN6017302-1"
L2973162                 1         0.0 +j      0.0        0.0       1.0000
L2973162                 2         0.0 +j      0.0        0.0       1.0000
L2973162                 3         0.0 +j      0.0        0.0       1.0000
   TERMINAL TOTAL ............     0.0 +j      0.0        0.0       1.0000
M1026333                 1         0.0 +j      0.0        0.0       1.0000
M1026333                 2         0.0 +j      0.0        0.0       1.0000
M1026333                 3         0.0 +j      0.0        0.0       1.0000
   TERMINAL TOTAL ............     0.0 +j      0.0        0.0       1.0000

ELEMENT = "Line.LN6199505-1"
M1009832                 2         0.0 +j      0.0        0.0       1.0000
   TERMINAL TOTAL ............     0.0 +j      0.0        0.0       1.0000
L2860479                 2         0.0 +j      0.0        0.0       1.0000
   TERMINAL TOTAL ............     0.0 +j      0.0        0.0       1.0000

ELEMENT = "Line.LN5682327-1"
M1026854                 1         0.0 +j      0.0        0.0       1.0000
   TERMINAL TOTAL ............     0.0 +j      0.0        0.0       1.0000
P901894                  1         0.0 +j      0.0        0.0       1.0000
   TERMINAL TOTAL ............     0.0 +j      0.0        0.0       1.0000

ELEMENT = "Line.LN6290243-1"
M1026485                 2         0.0 +j      0.0        0.0       1.0000
   TERMINAL TOTAL ............     0.0 +j      0.0        0.0       1.0000
M1026492                 2         0.0 +j      0.0        0.0       1.0000
   TERMINAL TOTAL ............     0.0 +j      0.0        0.0       1.0000

ELEMENT = "Line.X8223_48332_SW"
D6413567-3_INT           1         0.0 +j      0.0        0.0       1.0000
D6413567-3_INT           2         0.0 +j      0.0        0.0       1.0000
D6413567-3_INT           3         0.0 +j      0.0        0.0       1.0000
   TERMINAL TOTAL ............     0.0 +j      0.0        0.0       1.0000
E182724                  1         0.0 +j      0.0        0.0       1.0000
E182724                  2         0.0 +j      0.0        0.0       1.0000
E182724                  3         0.0 +j      0.0        0.0       1.0000
   TERMINAL TOTAL ............     0.0 +j      0.0        0.0       1.0000

ELEMENT = "Line.LN6413567-3"
N1139541                 1         0.0 +j      0.0        0.0       1.0000
N1139541                 2         0.0 +j      0.0        0.0       1.0000
N1139541                 3         0.0 +j      0.0        0.0       1.0000
   TERMINAL TOTAL ............     0.0 +j      0.0        0.0       1.0000
D6413567-3_INT           1         0.0 +j      0.0        0.0       1.0000
D6413567-3_INT           2         0.0 +j      0.0        0.0       1.0000
D6413567-3_INT           3         0.0 +j      0.0        0.0       1.0000
   TERMINAL TOTAL ............     0.0 +j      0.0        0.0       1.0000

ELEMENT = "Line.LN5591731-3"
M4122658                 1         0.0 +j      0.0        0.0       1.0000
M4122658                 2         0.0 +j      0.0        0.0       1.0000
M4122658                 3         0.0 +j      0.0        0.0       1.0000
   TERMINAL TOTAL ............     0.0 +j      0.0        0.0       1.0000
L2933135                 1         0.0 +j      0.0        0.0       1.0000
L2933135                 2         0.0 +j      0.0        0.0       1.0000
L2933135                 3         0.0 +j      0.0        0.0       1.0000
   TERMINAL TOTAL ............     0.0 +j      0.0        0.0       1.0000

ELEMENT = "Line.LN5653470-1"
M1026702                 1         0.0 +j      0.0        0.0       1.0000
M1026702                 2         0.0 +j      0.0        0.0       1.0000
M1026702                 3         0.0 +j      0.0        0.0       1.0000
   TERMINAL TOTAL ............     0.0 +j      0.0        0.0       1.0000
L2729414                 1         0.0 +j      0.0        0.0       1.0000
L2729414                 2         0.0 +j      0.0        0.0       1.0000
L2729414                 3         0.0 +j      0.0        0.0       1.0000
   TERMINAL TOTAL ............     0.0 +j      0.0        0.0       1.0000

ELEMENT = "Line.LN6017316-1"
L2729430                 2         0.0 +j      0.0        0.0       1.0000
   TERMINAL TOTAL ............     0.0 +j      0.0        0.0       1.0000
L2766742                 2         0.0 +j      0.0        0.0       1.0000
   TERMINAL TOTAL ............     0.0 +j      0.0        0.0       1.0000

ELEMENT = "Line.LN5926299-1"
M1026972                 2         0.0 +j      0.0        0.0       1.0000
   TERMINAL TOTAL ............     0.0 +j      0.0        0.0       1.0000
L2860483                 2         0.0 +j      0.0        0.0       1.0000
   TERMINAL TOTAL ............     0.0 +j      0.0        0.0       1.0000

ELEMENT = "Line.LN5683831-1"
L2860490                 1         0.0 +j      0.0        0.0       1.0000
L2860490                 2         0.0 +j      0.0        0.0       1.0000
L2860490                 3         0.0 +j      0.0        0.0       1.0000
   TERMINAL TOTAL ............     0.0 +j      0.0        0.0       1.0000
L3104134                 1         0.0 +j      0.0        0.0       1.0000
L3104134                 2         0.0 +j      0.0        0.0       1.0000
L3104134                 3         0.0 +j      0.0        0.0       1.0000
   TERMINAL TOTAL ............     0.0 +j      0.0        0.0       1.0000

ELEMENT = "Line.LN6352700-1"
M1089144                 1         0.0 +j      0.0        0.0       1.0000
   TERMINAL TOTAL ............     0.0 +j      0.0        0.0       1.0000
P827522                  1         0.0 +j      0.0        0.0       1.0000
   TERMINAL TOTAL ............     0.0 +j      0.0        0.0       1.0000

ELEMENT = "Line.LN6047570-1"
M1089118                 1         0.0 +j      0.0        0.0       1.0000
   TERMINAL TOTAL ............     0.0 +j      0.0        0.0       1.0000
L3048208                 1         0.0 +j      0.0        0.0       1.0000
   TERMINAL TOTAL ............     0.0 +j      0.0        0.0       1.0000

ELEMENT = "Line.LN5624342-1"
M1108505                 1         0.0 +j      0.0        0.0       1.0000
M1108505                 2         0.0 +j      0.0        0.0       1.0000
M1108505                 3         0.0 +j      0.0        0.0       1.0000
   TERMINAL TOTAL ............     0.0 +j      0.0        0.0       1.0000
L2955047                 1         0.0 +j      0.0        0.0       1.0000
L2955047                 2         0.0 +j      0.0        0.0       1.0000
L2955047                 3         0.0 +j      0.0        0.0       1.0000
   TERMINAL TOTAL ............     0.0 +j      0.0        0.0       1.0000

ELEMENT = "Line.LN6259992-1"
M1089148                 1         0.0 +j      0.0        0.0       1.0000
   TERMINAL TOTAL ............     0.0 +j      0.0        0.0       1.0000
L2766721                 1         0.0 +j      0.0        0.0       1.0000
   TERMINAL TOTAL ............     0.0 +j      0.0        0.0       1.0000

ELEMENT = "Line.LN5841919-1"
M1026745                 2         0.0 +j      0.0        0.0       1.0000
   TERMINAL TOTAL ............     0.0 +j      0.0        0.0       1.0000
L3029183                 2         0.0 +j      0.0        0.0       1.0000
   TERMINAL TOTAL ............     0.0 +j      0.0        0.0       1.0000

ELEMENT = "Line.LN6380811-1"
L2710512                 2         0.0 +j      0.0        0.0       1.0000
   TERMINAL TOTAL ............     0.0 +j      0.0        0.0       1.0000
M1047828                 2         0.0 +j      0.0        0.0       1.0000
   TERMINAL TOTAL ............     0.0 +j      0.0        0.0       1.0000

ELEMENT = "Line.LN5683832-1"
M1047342                 1         0.0 +j      0.0        0.0       1.0000
   TERMINAL TOTAL ............     0.0 +j      0.0        0.0       1.0000
L3197645                 1         0.0 +j      0.0        0.0       1.0000
   TERMINAL TOTAL ............     0.0 +j      0.0        0.0       1.0000

ELEMENT = "Line.LN6077778-1"
M1069192                 1         0.0 +j      0.0        0.0       1.0000
   TERMINAL TOTAL ............     0.0 +j      0.0        0.0       1.0000
L3235253                 1         0.0 +j      0.0        0.0       1.0000
   TERMINAL TOTAL ............     0.0 +j      0.0        0.0       1.0000

ELEMENT = "Line.LN5561442-2"
L3214071                 1         0.0 +j      0.0        0.0       1.0000
L3214071                 2         0.0 +j      0.0        0.0       1.0000
L3214071                 3         0.0 +j      0.0        0.0       1.0000
   TERMINAL TOTAL ............     0.0 +j      0.0        0.0       1.0000
M1125952                 1         0.0 +j      0.0        0.0       1.0000
M1125952                 2         0.0 +j      0.0        0.0       1.0000
M1125952                 3         0.0 +j      0.0        0.0       1.0000
   TERMINAL TOTAL ............     0.0 +j      0.0        0.0       1.0000

ELEMENT = "Line.LN6259983-1"
M1027101                 2         0.0 +j      0.0        0.0       1.0000
   TERMINAL TOTAL ............     0.0 +j      0.0        0.0       1.0000
L2860480                 2         0.0 +j      0.0        0.0       1.0000
   TERMINAL TOTAL ............     0.0 +j      0.0        0.0       1.0000

ELEMENT = "Line.LN5865244-1"
L2710517                 1         0.0 +j      0.0        0.0       1.0000
   TERMINAL TOTAL ............     0.0 +j      0.0        0.0       1.0000
M1026646                 1         0.0 +j      0.0        0.0       1.0000
   TERMINAL TOTAL ............     0.0 +j      0.0        0.0       1.0000

ELEMENT = "Line.LN6350555-1"
M1069662                 2         0.0 +j      0.0        0.0       1.0000
   TERMINAL TOTAL ............     0.0 +j      0.0        0.0       1.0000
L2935547                 2         0.0 +j      0.0        0.0       1.0000
   TERMINAL TOTAL ............     0.0 +j      0.0        0.0       1.0000

ELEMENT = "Line.LN5714039-1"
M1026931                 1         0.0 +j      0.0        0.0       1.0000
   TERMINAL TOTAL ............     0.0 +j      0.0        0.0       1.0000
L3216336                 1         0.0 +j      0.0        0.0       1.0000
   TERMINAL TOTAL ............     0.0 +j      0.0        0.0       1.0000

ELEMENT = "Line.LN5889821-1"
L3142049                 1         0.0 +j      0.0        0.0       1.0000
L3142049                 2         0.0 +j      0.0        0.0       1.0000
L3142049                 3         0.0 +j      0.0        0.0       1.0000
   TERMINAL TOTAL ............     0.0 +j      0.0        0.0       1.0000
M1108493                 1         0.0 +j      0.0        0.0       1.0000
M1108493                 2         0.0 +j      0.0        0.0       1.0000
M1108493                 3         0.0 +j      0.0        0.0       1.0000
   TERMINAL TOTAL ............     0.0 +j      0.0        0.0       1.0000

ELEMENT = "Line.LN5804791-1"
M1069169                 1         0.0 +j      0.0        0.0       1.0000
M1069169                 2         0.0 +j      0.0        0.0       1.0000
M1069169                 3         0.0 +j      0.0        0.0       1.0000
   TERMINAL TOTAL ............     0.0 +j      0.0        0.0       1.0000
L3010556                 1         0.0 +j      0.0        0.0       1.0000
L3010556                 2         0.0 +j      0.0        0.0       1.0000
L3010556                 3         0.0 +j      0.0        0.0       1.0000
   TERMINAL TOTAL ............     0.0 +j      0.0        0.0       1.0000

ELEMENT = "Line.LN5653486-1"
L2991933                 3         0.0 +j      0.0        0.0       1.0000
   TERMINAL TOTAL ............     0.0 +j      0.0        0.0       1.0000
L3122837                 3         0.0 +j      0.0        0.0       1.0000
   TERMINAL TOTAL ............     0.0 +j      0.0        0.0       1.0000

ELEMENT = "Line.LN5926286-1"
L3216336                 1         0.0 +j      0.0        0.0       1.0000
   TERMINAL TOTAL ............     0.0 +j      0.0        0.0       1.0000
L2691936                 1         0.0 +j      0.0        0.0       1.0000
   TERMINAL TOTAL ............     0.0 +j      0.0        0.0       1.0000

ELEMENT = "Line.LN6318859-1"
L2897772                 1         0.0 +j      0.0        0.0       1.0000
   TERMINAL TOTAL ............     0.0 +j      0.0        0.0       1.0000
L3101814                 1         0.0 +j      0.0        0.0       1.0000
   TERMINAL TOTAL ............     0.0 +j      0.0        0.0       1.0000

ELEMENT = "Line.LN5926316-1"
L2766732                 2         0.0 +j      0.0        0.0       1.0000
   TERMINAL TOTAL ............     0.0 +j      0.0        0.0       1.0000
M1026485                 2         0.0 +j      0.0        0.0       1.0000
   TERMINAL TOTAL ............     0.0 +j      0.0        0.0       1.0000

ELEMENT = "Line.LN5591703-1"
L2804269                 2         0.0 +j      0.0        0.0       1.0000
   TERMINAL TOTAL ............     0.0 +j      0.0        0.0       1.0000
L2989564                 2         0.0 +j      0.0        0.0       1.0000
   TERMINAL TOTAL ............     0.0 +j      0.0        0.0       1.0000

ELEMENT = "Line.LN5531333-1"
M1126016                 1         0.0 +j      0.0        0.0       1.0000
   TERMINAL TOTAL ............     0.0 +j      0.0        0.0       1.0000
L3120534                 1         0.0 +j      0.0        0.0       1.0000
   TERMINAL TOTAL ............     0.0 +j      0.0        0.0       1.0000

ELEMENT = "Line.LN6047581-1"
M1026330                 2         0.0 +j      0.0        0.0       1.0000
   TERMINAL TOTAL ............     0.0 +j      0.0        0.0       1.0000
L2766726                 2         0.0 +j      0.0        0.0       1.0000
   TERMINAL TOTAL ............     0.0 +j      0.0        0.0       1.0000

ELEMENT = "Line.LN6349077-1"
P901912                  2         0.0 +j      0.0        0.0       1.0000
   TERMINAL TOTAL ............     0.0 +j      0.0        0.0       1.0000
L3195365                 2         0.0 +j      0.0        0.0       1.0000
   TERMINAL TOTAL ............     0.0 +j      0.0        0.0       1.0000

ELEMENT = "Line.LN6350574-1"
M1108381                 1         0.0 +j      0.0        0.0       1.0000
M1108381                 2         0.0 +j      0.0        0.0       1.0000
M1108381                 3         0.0 +j      0.0        0.0       1.0000
   TERMINAL TOTAL ............     0.0 +j      0.0        0.0       1.0000
L3254237                 1         0.0 +j      0.0        0.0       1.0000
L3254237                 2         0.0 +j      0.0        0.0       1.0000
L3254237                 3         0.0 +j      0.0        0.0       1.0000
   TERMINAL TOTAL ............     0.0 +j      0.0        0.0       1.0000

ELEMENT = "Line.LN6320343-1"
L2804262                 1         0.0 +j      0.0        0.0       1.0000
   TERMINAL TOTAL ............     0.0 +j      0.0        0.0       1.0000
L2841639                 1         0.0 +j      0.0        0.0       1.0000
   TERMINAL TOTAL ............     0.0 +j      0.0        0.0       1.0000

ELEMENT = "Line.LN81048100-5"
N1230123                 2         0.0 +j      0.0        0.0       1.0000
   TERMINAL TOTAL ............     0.0 +j      0.0        0.0       1.0000
L2708744                 2         0.0 +j      0.0        0.0       1.0000
   TERMINAL TOTAL ............     0.0 +j      0.0        0.0       1.0000

ELEMENT = "Line.LN6348946-1"
M1069519                 2         0.0 +j      0.0        0.0       1.0000
   TERMINAL TOTAL ............     0.0 +j      0.0        0.0       1.0000
P901927                  2         0.0 +j      0.0        0.0       1.0000
...